  54    
#comment 
O 5.924100 5.160527 -0.000000     -0.4
H 6.230219 5.650766 0.816062      +0.2
H 6.229351 5.649375 -0.817221     +0.2
O 1.203128 -7.407984 0.000000     -0.4
H 1.474634 -7.918208 -0.816062    +0.2
H 1.473864 -7.916760 0.817221     +0.2
O -7.320199 2.964839 0.000000     -0.4
H -7.897389 2.985389 -0.816351    +0.2
H -7.897389 2.985389 0.816351     +0.2
O 1.470881 2.671277 0.000000      -0.4
H 1.996721 3.521861 0.000000      +0.2
H 0.471334 2.701376 0.000000      +0.2
O -1.405814 2.762160 0.000000     -0.4
H -1.876675 3.644368 0.000000     +0.2
H -1.934398 1.913279 0.000000     +0.2
O -2.938624 0.352763 0.000000     -0.4
H -3.938170 0.382875 0.000000     +0.2
H -2.464928 -0.527925 -0.000000   +0.2
O -1.578961 -2.183937 -0.000000   -0.4
H -2.107541 -3.032820 -0.000000   +0.2
H -0.579516 -2.217259 -0.000000   +0.2
O 1.273929 -2.306751 -0.000000    -0.4
H 1.747647 -3.187427 -0.000000    +0.2
H 1.799758 -1.456160 -0.000000    +0.2
O 2.790920 0.139151 0.000000      -0.4
H 3.790365 0.105828 0.000000      +0.2
H 2.320057 1.021357 0.000000      +0.2
O 7.168154 2.515234 0.000000      -0.4
H 6.730241 3.414252 -0.000000     +0.2
H 8.165682 2.444969 0.000000      +0.2
O 5.646605 0.060656 0.000000      -0.4
H 6.111962 -0.824467 0.000000     +0.2
H 6.180466 0.906228 0.000000      +0.2
O 3.002035 5.116902 0.000000      -0.4
H 4.002035 5.117856 -0.000000     +0.2
H 2.501209 5.982449 0.000000      +0.2
O -3.074772 -4.617787 -0.000000   -0.4
H -2.609410 -5.502907 -0.000000   +0.2
H -4.073990 -4.578242 -0.000000   +0.2
O -1.709794 -7.162760 -0.000000   -0.4
H -2.269401 -7.991518 -0.000000   +0.2
H -0.712265 -7.233014 0.000000    +0.2
O 2.626351 -4.855569 -0.000000    -0.4
H 2.127189 -5.722077 0.000000     +0.2
H 3.626351 -4.854603 -0.000000    +0.2
O -5.822144 0.455894 0.000000     -0.4
H -6.322819 1.321529 0.000000     +0.2
H -6.321468 -0.410521 -0.000000   +0.2
O -5.652101 5.365112 0.000000     -0.4
H -6.211562 4.536255 0.000000     +0.2
H -6.090182 6.264047 0.000000     +0.2
O -2.765630 5.274667 0.000000     -0.4
H -3.764849 5.314189 0.000000     +0.2
H -2.231793 6.120254 0.000000     +0.2
